{"status":"ok","message-type":"work","message-version":"1.0.0","message":{"indexed":{"date-parts":[[2019,8,20]],"date-time":"2019-08-20T06:40:12Z","timestamp":1566283212770},"reference-count":45,"publisher":"Association for Computing Machinery (ACM)","issue":"1","license":[{"URL":"http:\/\/www.acm.org\/publications\/policies\/copyright_policy#Background","start":{"date-parts":[[2015,1,20]],"date-time":"2015-01-20T00:00:00Z","timestamp":1421712000000},"delay-in-days":0,"content-version":"vor"}],"content-domain":{"domain":[],"crossmark-restriction":false},"short-container-title":["SIGOPS Oper. Syst. Rev."],"published-print":{"date-parts":[[2015,1,20]]},"DOI":"10.1145\/2723872.2723886","type":"journal-article","created":{"date-parts":[[2015,1,28]],"date-time":"2015-01-28T14:05:51Z","timestamp":1422453951000},"page":"108-117","source":"Crossref","is-referenced-by-count":1,"title":["A Roadmap and Plan of Action for Community-Supported Empirical Evaluation in Computer Architecture"],"prefix":"10.1145","volume":"49","author":[{"given":"Bruce R.","family":"Childers","sequence":"first","affiliation":[]},{"given":"Alex K.","family":"Jones","sequence":"additional","affiliation":[]},{"given":"Daniel","family":"Moss\u00e9","sequence":"additional","affiliation":[]}],"member":"320","reference":[{"key":"key-10.1145\/2723872.2723886-1","unstructured":"T. M. Aaamodt and A. Boktor. GPGPU-Sim 3.x: A performance simulator for many-core accelerator research. International Symposium on Computer Architecture (ISCA), http:\/\/www.gpgpu-sim.org\/isca2012-tutorial\/, 2012. [Online; accessed 30-Sep-2012]."},{"key":"key-10.1145\/2723872.2723886-2","unstructured":"T. M. Aaamodt andW.W. Fung. GPGPU-Sim 3.x: A performance simulator for manycore accelerator research. International Conference on Parallel Architectures and Compilation Techniques (PACT), http:\/\/www.gpgpu-sim.org\/pact2012-tutorial\/, 2012. [Online; accessed 30-Sep-2012]."},{"key":"key-10.1145\/2723872.2723886-3","unstructured":"ArtistDesign NoE -- European Network of Excellence on High Performance and Embedded Architecture and Compilation. http:\/\/www.artist-embedded.org\/, 2012. [Online; accessed 21-Sep-2012]."},{"key":"key-10.1145\/2723872.2723886-4","unstructured":"A. Bakhoda, G. L. Yuan, W. W. L. Fung, H. Wong, and T. M. Aamodt. Analyzing cuda workloads using a detailed GPU simulator. In 2012 IEEE International Symposium on Performance Analysis of Systems &#38; Software (ISPASS), pages 163--174, 2009.","DOI":"10.1109\/ISPASS.2009.4919648","doi-asserted-by":"crossref"},{"key":"key-10.1145\/2723872.2723886-5","unstructured":"B. Beckmann, N. Binkert, A. Saidi, J. Hestness, G. Black, K. Sewell, and D. Hower. gem5: A multiple-ISA full system simulator with detailed memory modeling. Tutorial at the International Symposium on Computer Architecture (ISCA),http:\/\/www.m5sim.org\/. [Online; accessed 12-Jul-2012]."},{"key":"key-10.1145\/2723872.2723886-6","unstructured":"F. Bellard. QEMU, a fast and portable dynamic translator. In Proceedings of the annual conference on USENIX Annual Technical Conference, ATEC '05, pages 41--41, Berkeley, CA, USA, 2005. USENIX Association."},{"key":"key-10.1145\/2723872.2723886-7","unstructured":"N. Binkert, B. Beckmann, G. Black, S. K. Reinhardt, A. Saidi, A. Basu, J. Hestness, D. R. Hower, T. Krishna, S. Sardashti, R. Sen, K. Sewell, M. Shoaib, N. Vaish, M. D. Hill, and D. A. Wood. The gem5 simulator. SIGARCH Comput. Archit. News, 39(2):1-7, Aug. 2011.","DOI":"10.1145\/2024716.2024718","doi-asserted-by":"crossref"},{"key":"key-10.1145\/2723872.2723886-8","unstructured":"R. Campbell, I. Gupta, M. Heath, S. Y. Ko, M. Kozuch, M. Kunze, T. Kwan, K. Lai, H. Y. Lee, M. Lyons, D. Milojicic, D. O'Hallaron, and Y. C. Soh. Open Cirrus(TM) cloud computing testbed: federated data centers for open source systems and services research. In Proceedings of the 2009 conference on Hot topics in cloud computing, HotCloud'09, Berkeley, CA, USA, 2009. USENIX Association."},{"key":"key-10.1145\/2723872.2723886-9","unstructured":"J. Cappos, I. Beschastnikh, A. Krishnamurthy, and T. Anderson. Seattle: a platform for educational cloud computing. In Proceedings of the 40th ACM technical symposium on Computer science education, SIGCSE'09, pages 111--115, New York, NY, USA, 2009. ACM.","DOI":"10.1145\/1508865.1508905","doi-asserted-by":"crossref"},{"key":"key-10.1145\/2723872.2723886-10","unstructured":"T. E. Carlson, W. Heirman, and L. Eeckhout. Sniper: Exploring the level of abstraction for scalable and accurate parallel multi-core simulations. In International Conference for High Performance Computing, Networking, Storage and Analysis (SC), Nov. 2011.","DOI":"10.1145\/2063384.2063454","doi-asserted-by":"crossref"},{"key":"key-10.1145\/2723872.2723886-11","unstructured":"Chameleon. http:\/\/www.chameleoncloud.org\/, 2014. [Online; accessed 13-Nov-2014]."},{"key":"key-10.1145\/2723872.2723886-12","unstructured":"D. Chiou, D. Sunwoo, J. Kim, N. A. Patil, W. Reinhart, D. E. Johnson, J. Keefe, and H. Angepat. Fpga-accelerated simulation technologies (fast): Fast, full-system, cycle-accurate simulators. In Proceedings of the 40th Annual IEEE\/ACM International Symposium on Microarchitecture, MICRO 40, pages 249--261, Washington, DC, USA, 2007. IEEE Computer Society.","DOI":"10.1109\/MICRO.2007.36","doi-asserted-by":"crossref"},{"key":"key-10.1145\/2723872.2723886-13","unstructured":"B. Chun, D. Culler, T. Roscoe, A. Bavier, L. Peterson, M. Wawrzoniak, and M. Bowman. Planetlab: an overlay testbed for broad-coverage services. SIGCOMM Comput. Commun. Rev., 33(3):3--12, July 2003.","DOI":"10.1145\/956993.956995","doi-asserted-by":"crossref"},{"key":"key-10.1145\/2723872.2723886-14","unstructured":"E. S. Chung, E. Nurvitadhi, J. C. Hoe, B. Falsafi, and K. Mai. A complexity-effective architecture for accelerating full-system multiprocessor simulations using fpgas. In Proceedings of the 16th international ACM\/SIGDA symposium on Field programmable gate ,marrays, FPGA '08, pages 77--86, New York, NY, USA, 2008. ACM.","DOI":"10.1145\/1344671.1344684","doi-asserted-by":"crossref"},{"key":"key-10.1145\/2723872.2723886-15","unstructured":"CloudLab. http:\/\/www.cloudlab.us\/, 2014. [Online; accessed 13-Nov-2014]."},{"key":"key-10.1145\/2723872.2723886-16","unstructured":"CMU Artificial Intelligence Repository. http:\/\/www.cs.cmu.edu\/afs\/cs\/project\/ai-repository\/ai\/0.html, 2012. [Online; accessed 02-Jan-2012]."},{"key":"key-10.1145\/2723872.2723886-17","unstructured":"L. Eeckhout, W. Heirman, T. E. Carlson, and I. Hur. Sniper: Fast, accurate and scalable multicore simulation. Tutorial at the International Symposium on Computer Architecture (ISCA),\/\/http:\/\/snipersim.org\/w\/Tutorial:ISCA_2012. [Online; accessed 30-Sep-2012]."},{"key":"key-10.1145\/2723872.2723886-18","unstructured":"Emulab --- total network testbed. http:\/\/www.emulab.net, 2012. [Online; accessed 18-Sep-2012]."},{"key":"key-10.1145\/2723872.2723886-19","unstructured":"FPGA-Accelerator Research Infrastructure Cloud (FAbRIC). http:\/\/users.ece.utexas.edu\/~derek\/FABRIC.html. [Online; accessed 29-Sep-2012]."},{"key":"key-10.1145\/2723872.2723886-20","unstructured":"The gem5 simulator system. http:\/\/www.gem5.org\/. [Online; accessed 12-Jul-2012]."},{"key":"key-10.1145\/2723872.2723886-21","unstructured":"D. Genbrugge, S. Eyerman, and L. Eeckhout. Interval simulation: Raising the level of abstraction in architectural simulation. In 16th International Conference on High-Performance Computer Architecture (HPCA), pages 1--12, 2010.","DOI":"10.1109\/HPCA.2010.5416636","doi-asserted-by":"crossref"},{"key":"key-10.1145\/2723872.2723886-22","unstructured":"K. Ghose, A. Patel, F. Afram, H. Zheng, J. Tringali, and J. Greensky. Marssx86 tutorial. Tutorial at Conference on Parallel Architecture and Compilation Techniques (PACT), http:\/\/marss86.org\/~marss86\/index.php\/PACT_Tutorial_2012. [Online; accessed24-Sep-2012]."},{"key":"key-10.1145\/2723872.2723886-23","unstructured":"M. Hibler, R. Ricci, L. Stoller, J. Duerig, S. Guruprasad, T. Stack, K. Webb, and J. Lepreau. Large-scale virtualization in the emulab network testbed. In USENIX 2008 Annual Technical Conference on Annual Technical Conference, ATC'08, pages 113--128, Berkeley, CA, USA, 2008. USENIX Association."},{"key":"key-10.1145\/2723872.2723886-24","unstructured":"HiPEAC Compilation Architecture --- European Network of Excellence on High Performance and Embedded Architecture and Compilation. http:\/\/www.hipeac.net\/, 2012. [Online; accessed 27-Sep-2012]."},{"key":"key-10.1145\/2723872.2723886-25","unstructured":"Intel Many-core Applications Research Community (MARC). http:\/\/communities.intel.com\/community\/marc, 2012. [Online; accessed 17-Mar-2012]."},{"key":"key-10.1145\/2723872.2723886-26","unstructured":"C. L. Janssen, H. Adalsteinsson, and J. P. Kenny. Using simulation to design extremescale applications and architectures: programming model exploration. SIGMETRICS Perform. Eval. Rev., 38(4):4--8, Mar. 2011.","DOI":"10.1145\/1964218.1964220","doi-asserted-by":"crossref"},{"key":"key-10.1145\/2723872.2723886-27","unstructured":"A. Kerr, G. Diamos, and S. Yalamanchili. A characterization and analysis of PTX kernels. In International Symposium on Workload Characterization (IISWC), 2009.","DOI":"10.1109\/IISWC.2009.5306801","doi-asserted-by":"crossref"},{"key":"key-10.1145\/2723872.2723886-28","unstructured":"A. Kerr, G. Diamos, and S. Yalamanchili. GPU application development, debugging, and performance tuning with GPU Ocelot. In Wen-mei Hwu, editor, GPU Computing GEMS, vol. 2. Morgan Kaufmann, 2011.","DOI":"10.1016\/B978-0-12-385963-1.00030-7","doi-asserted-by":"crossref"},{"key":"key-10.1145\/2723872.2723886-29","unstructured":"H. Kim, S. Yalamanchili, J. Lee, N. Lakshminarayana, A. Kerr, A. Rodrigues, and G. Hsieh. Tutorial on Ocelot and SST-MacSim Simulator. International Symposium on Computer Architecture, http:\/\/comparch.gatech.edu\/hparch\/isca12_gt.html, 2012. [Online; accessed 15-Sep-2012]."},{"key":"key-10.1145\/2723872.2723886-30","unstructured":"H. Kim, S. Yalamanchili, J. Lee, N. Lakshminarayana, A. Kerr, A. Rodrigues, and G. Hsieh. Tutorial on Ocelot and SST-MacSim Simulator. Conference on High-Performance Computer Architecture, http:\/\/comparch.gatech.edu\/hparch\/OcelotMacSim_tutorial.html, 2012. [Online; accessed 15-Sep-2012]."},{"key":"key-10.1145\/2723872.2723886-31","unstructured":"P. S. Magnusson, M. Christensson, J. Eskilson, D. Forsgren, G. H?allberg, J. H&#246;gberg, F. Larsson, A. Moestedt, and B. Werner. Simics: A full system simulation platform. Computer, 35(2):50--58, Feb. 2002.","DOI":"10.1109\/2.982916","doi-asserted-by":"crossref"},{"key":"key-10.1145\/2723872.2723886-32","unstructured":"Manifold parallel discrete event simulation. http:\/\/manifold.gatech.edu. [Online; accessed 29-Sep-2012]."},{"key":"key-10.1145\/2723872.2723886-33","unstructured":"J. Miller, H. Kasture, G. Kurian, C. Gruenwald, N. Beckmann, C. Celio, J. Eastep, and A. Agarwal. Graphite: A distributed parallel simulator for multicores. In High Performance Computer Architecture (HPCA), 2010 IEEE 16th International Symposium on, pages 1--12, jan. 2010.","DOI":"10.1109\/HPCA.2010.5416635","doi-asserted-by":"crossref"},{"key":"key-10.1145\/2723872.2723886-34","unstructured":"nanoHUB.org -- Online Simulation and More for Nanotechnology. nanohub.org. [Online; accessed 20-Sep-2012]."},{"key":"key-10.1145\/2723872.2723886-35","unstructured":"OpenCirrus(TM) the HP\/Intel\/Yahoo! Open Cloud Computing Research Testbed. http:\/\/opencirrus.org, 2012. [Online; accessed 15-Sep-2012]."},{"key":"key-10.1145\/2723872.2723886-36","unstructured":"M. Pellauer, M. Vijayaraghavan, M. Adler, Arvind, and J. Emer. A-ports: an efficient abstraction for cycle-accurate performance models on fpgas. In Proceedings of the 16th international ACM\/SIGDA symposium on Field programmable gate arrays, FPGA'08, pages 87--96, New York, NY, USA, 2008. ACM.","DOI":"10.1145\/1344671.1344685","doi-asserted-by":"crossref"},{"key":"key-10.1145\/2723872.2723886-37","unstructured":"D. A. Penry, D. Fay, D. Hodgdon, R. Wells, G. Schelle, D. I. August, and D. Connors. Exploiting parallelism and structure to accelerate the simulation of chip multi-processors. In 12th International Symposium on High-Performance Computer Architecture HPCA, pages 29--40, 2006."},{"key":"key-10.1145\/2723872.2723886-38","unstructured":"L. Peterson, A. Bavier, M. E. Fiuczynski, and S. Muir. Experiences building planetlab. In Proceedings of the 7th symposium on Operating systems design and implementation, OSDI '06, pages 351--366, Berkeley, CA, USA, 2006. USENIX Association."},{"key":"key-10.1145\/2723872.2723886-39","unstructured":"PlanetLab -- An Open Platform for Developing, Deploying and Accessing Planetary-Scale Services. http:\/\/www.planet-lab.org\/, 2012. [Online; accessed 27-Sep-2012]."},{"key":"key-10.1145\/2723872.2723886-40","unstructured":"P. Ren, M. Lis, M. H. Cho, K. S. Shim, C. Fletcher, O. Khan, N. Zheng, and S. Devadas. Hornet: A cycle-level multicore simulator. Computer-Aided Design of Integrated Circuits and Systems, IEEE Transactions on, 31(6):890--903, June 2012.","DOI":"10.1109\/TCAD.2012.2184760","doi-asserted-by":"crossref"},{"key":"key-10.1145\/2723872.2723886-41","unstructured":"A. F. Rodrigues, K. S. Hemmert, B. W. Barrett, C. Kersey, R. Oldfield, M. Weston, R. Risen, J. Cook, P. Rosenfeld, E. CooperBalls, and B. Jacob. The structural simulation toolkit (SST). SIGMETRICS Perform. Eval. Rev., 38(4):37--42, Mar. 2011.","DOI":"10.1145\/1964218.1964225","doi-asserted-by":"crossref"},{"key":"key-10.1145\/2723872.2723886-42","unstructured":"Seattle -- Open Peer-to-Peer Computing. http:\/\/seattle.cs.washington.edu, 2012. [Online; accessed 18-Sep-2012]."},{"key":"key-10.1145\/2723872.2723886-43","unstructured":"SST: The Structural Simulation Toolkit. http:\/\/sst.sandia.gov, 2012. [Online; accessed 12-Aug-2012]."},{"key":"key-10.1145\/2723872.2723886-44","unstructured":"R. Ubal, B. Jang, P. Mistry, D. Schaa, and D. Kaeli. Multi2Sim: A Simulation Framework for CPU-GPU Computing . In Proc. of the 21st International Conference on Parallel Architectures and Compilation Techniques, Sep. 2012.","DOI":"10.1145\/2370816.2370865","doi-asserted-by":"crossref"},{"key":"key-10.1145\/2723872.2723886-45","unstructured":"XSEDE: Extreme Science and Engineering Discovery Environment. http:\/\/www.xsede.org, 2012. [Online; accessed 15-Sep-2012]."}],"container-title":["ACM SIGOPS Operating Systems Review"],"original-title":[],"language":"en","link":[{"URL":"http:\/\/dl.acm.org\/ft_gateway.cfm?id=2723886&amp;ftid=1531177&amp;dwn=1","content-type":"unspecified","content-version":"vor","intended-application":"similarity-checking"}],"deposited":{"date-parts":[[2019,8,20]],"date-time":"2019-08-20T06:23:39Z","timestamp":1566282219000},"score":1.0,"subtitle":[],"short-title":[],"issued":{"date-parts":[[2015,1,20]]},"references-count":45,"journal-issue":{"published-print":{"date-parts":[[2015,1,20]]},"issue":"1"},"URL":"http:\/\/dx.doi.org\/10.1145\/2723872.2723886","relation":{"cites":[]},"ISSN":["0163-5980"],"issn-type":[{"value":"0163-5980","type":"print"}],"subject":["Hardware and Architecture"]}}